Circuit: * E:\Projekty\Stepper_Motor_Brushed_Motor_Controller\Brushed_Motor_Simulation\Brushed_Motor_Simulation.asc

Direct Newton iteration failed to find .op point.  (Use ".option noopiter" to skip.)
Starting Gmin stepping
Gmin = 10
Gmin = 1.07374
Gmin = 0.115292
Gmin = 0.0123794
Gmin = 0.00132923
Gmin = 0.000142725
Gmin = 1.5325e-005
Gmin = 1.6455e-006
Gmin = 1.76685e-007
Gmin = 1.89714e-008
Gmin = 2.03704e-009
Gmin = 2.18725e-010
Gmin = 2.34854e-011
Gmin = 2.52173e-012
Gmin = 2.70769e-013
Gmin = 0
Gmin stepping succeeded in finding the operating point.


Date: Wed Oct 28 21:57:55 2015
Total elapsed time: 0.232 seconds.

tnom = 27
temp = 27
method = modified trap
totiter = 1019
traniter = 536
tranpoints = 269
accept = 269
rejected = 0
matrix size = 55
fillins = 54
solver = Normal
Thread vector: 28.4/19.7[2] 8.5/5.0[2] 4.7/4.2[2] 0.8/1.0[1]  2592/500
Matrix Compiler1: 6.22 KB object code size  4.1/2.1/[0.7]
Matrix Compiler2: 5.83 KB object code size  1.3/1.9/[0.7]


